  
       XFOIL         Version 6.99
  
 Calculated polar for: NACA 4410                                       
  
 1 1 Reynolds number fixed          Mach number fixed         
  
 xtrf =   1.000 (top)        1.000 (bottom)  
 Mach =   0.250     Re =     2.000 e 6     Ncrit =   9.000
  
   alpha    CL        CD       CDp       CM     Top_Xtr  Bot_Xtr
  ------ -------- --------- --------- -------- -------- --------
   0.000   0.4920   0.00615   0.00094  -0.1077   0.5643   0.2535
   0.500   0.5501   0.00608   0.00100  -0.1078   0.5402   0.3366
   2.000   0.7210   0.00513   0.00141  -0.1073   0.4825   1.0000
   2.500   0.7790   0.00532   0.00153  -0.1072   0.4666   1.0000
   3.000   0.8370   0.00552   0.00168  -0.1070   0.4509   1.0000
   3.500   0.8946   0.00576   0.00184  -0.1069   0.4323   1.0000
   4.000   0.9514   0.00607   0.00204  -0.1065   0.4036   1.0000
   4.500   1.0072   0.00645   0.00229  -0.1060   0.3689   1.0000
   5.000   1.0612   0.00700   0.00264  -0.1052   0.3224   1.0000
   5.500   1.1117   0.00784   0.00317  -0.1038   0.2529   1.0000
   6.500   1.2024   0.01033   0.00484  -0.0993   0.0890   1.0000
   7.000   1.2492   0.01137   0.00567  -0.0972   0.0499   1.0000
   7.500   1.2977   0.01221   0.00643  -0.0953   0.0331   1.0000
   8.000   1.3460   0.01300   0.00721  -0.0933   0.0245   1.0000
   8.500   1.3927   0.01384   0.00806  -0.0910   0.0195   1.0000
   9.000   1.4367   0.01478   0.00903  -0.0883   0.0158   1.0000
   9.500   1.4787   0.01571   0.01001  -0.0852   0.0137   1.0000
  10.000   1.5117   0.01684   0.01124  -0.0805   0.0121   1.0000
  10.500   1.5443   0.01805   0.01254  -0.0760   0.0109   1.0000
  11.000   1.5688   0.01980   0.01441  -0.0708   0.0095   1.0000
  11.500   1.5965   0.02150   0.01624  -0.0664   0.0089   1.0000
  12.000   1.6199   0.02362   0.01849  -0.0620   0.0083   1.0000
  12.500   1.6361   0.02645   0.02146  -0.0576   0.0076   1.0000
  13.000   1.6422   0.03038   0.02561  -0.0531   0.0071   1.0000
  13.500   1.6527   0.03432   0.02974  -0.0500   0.0069   1.0000
  14.000   1.6569   0.03917   0.03480  -0.0473   0.0065   1.0000
  14.500   1.6566   0.04486   0.04070  -0.0455   0.0062   1.0000
  15.000   1.6545   0.05117   0.04720  -0.0445   0.0059   1.0000
  15.500   1.6458   0.05862   0.05487  -0.0444   0.0057   1.0000
  16.000   1.6270   0.06775   0.06423  -0.0453   0.0055   1.0000
  16.500   1.5982   0.07856   0.07529  -0.0474   0.0054   1.0000
  17.000   1.5612   0.09103   0.08802  -0.0507   0.0053   1.0000
  17.500   1.5312   0.10302   0.10024  -0.0545   0.0052   1.0000
  18.000   1.5015   0.11543   0.11287  -0.0592   0.0052   1.0000
  18.500   1.4708   0.12856   0.12620  -0.0649   0.0051   1.0000
  19.000   1.4402   0.14219   0.14004  -0.0716   0.0051   1.0000
  19.500   1.4101   0.15648   0.15453  -0.0796   0.0051   1.0000
  20.000   1.3802   0.17153   0.16975  -0.0887   0.0051   1.0000
  20.500   1.3522   0.18698   0.18537  -0.0988   0.0050   1.0000
  21.000   1.3257   0.20322   0.20177  -0.1098   0.0050   1.0000
  21.500   1.3010   0.22034   0.21903  -0.1217   0.0050   1.0000
  22.000   1.2690   0.24172   0.24057  -0.1365   0.0050   1.0000
  23.500   1.2310   0.31109   0.30999  -0.1776   0.0034   1.0000
  24.000   1.2455   0.31958   0.31850  -0.1834   0.0035   1.0000
