  
       XFOIL         Version 6.99
  
 Calculated polar for: NACA 4410                                       
  
 1 1 Reynolds number fixed          Mach number fixed         
  
 xtrf =   1.000 (top)        1.000 (bottom)  
 Mach =   0.250     Re =     2.000 e 6     Ncrit =   9.000  9.000
  
   alpha    CL        CD       CDp       CM     Top_Xtr  Bot_Xtr  Top_Itr  Bot_Itr
  ------ -------- --------- --------- -------- -------- -------- -------- --------
   0.000   0.4917   0.00613  -0.00009  -0.1076   0.5647   0.2545  30.7844 111.4655
   0.500   0.5497   0.00608  -0.00006  -0.1077   0.5405   0.3361  32.3705 116.6757
   1.000   0.6068   0.00574  -0.00001  -0.1078   0.5185   0.5573  33.8195 130.7638
   1.500   0.6604   0.00519   0.00009  -0.1070   0.4996   0.8622  35.0570 150.2090
   2.000   0.7209   0.00513   0.00006  -0.1072   0.4826   1.0000  36.1788 160.0000
   2.500   0.7789   0.00532   0.00001  -0.1071   0.4667   1.0000  37.2208 160.0000
   3.000   0.8368   0.00553  -0.00007  -0.1070   0.4511   1.0000  38.2501 160.0000
   3.500   0.8945   0.00575  -0.00019  -0.1068   0.4326   1.0000  39.4666 160.0000
   4.000   0.9512   0.00607  -0.00034  -0.1065   0.4039   1.0000  41.3673 160.0000
   4.500   1.0072   0.00644  -0.00052  -0.1060   0.3697   1.0000  43.6706 160.0000
   5.000   1.0612   0.00699  -0.00070  -0.1052   0.3229   1.0000  46.8464 160.0000
   5.500   1.1118   0.00782  -0.00079  -0.1038   0.2543   1.0000  51.5506 160.0000
   6.000   1.1575   0.00907  -0.00072  -0.1016   0.1639   1.0000  57.8953 160.0000
   6.500   1.2025   0.01033  -0.00068  -0.0993   0.0895   1.0000  63.4330 160.0000
   7.000   1.2493   0.01137  -0.00084  -0.0972   0.0502   1.0000  66.8444 160.0000
   7.500   1.2978   0.01222  -0.00123  -0.0953   0.0333   1.0000  68.7994 160.0000
   8.000   1.3461   0.01302  -0.00179  -0.0933   0.0246   1.0000  70.1645 160.0000
   8.500   1.3928   0.01386  -0.00246  -0.0911   0.0195   1.0000  71.1639 160.0000
   9.000   1.4366   0.01482  -0.00322  -0.0883   0.0158   1.0000  72.0419 160.0000
   9.500   1.4788   0.01574  -0.00415  -0.0852   0.0138   1.0000  72.6058 160.0000
  10.000   1.5113   0.01691  -0.00496  -0.0805   0.0121   1.0000  73.1171 160.0000
  10.500   1.5438   0.01812  -0.00590  -0.0760   0.0110   1.0000  73.5118 160.0000
  11.000   1.5671   0.01995  -0.00640  -0.0706   0.0096   1.0000  73.9974 160.0000
  11.500   1.5949   0.02165  -0.00723  -0.0663   0.0090   1.0000  74.2245 160.0000
  12.000   1.6176   0.02382  -0.00777  -0.0618   0.0084   1.0000  74.5013 160.0000
  12.500   1.6352   0.02656  -0.00788  -0.0575   0.0078   1.0000  74.7524 160.0000
  13.000   1.6366   0.03088  -0.00632  -0.0528   0.0072   1.0000  75.0032 160.0000
  13.500   1.6472   0.03485  -0.00537  -0.0497   0.0070   1.0000  75.1139 160.0000
  14.000   1.6509   0.03981  -0.00341  -0.0472   0.0067   1.0000  75.2553 160.0000
  14.500   1.6488   0.04573  -0.00044  -0.0454   0.0064   1.0000  75.3947 160.0000
  15.000   1.6444   0.05236   0.00328  -0.0446   0.0061   1.0000  75.5384 160.0000
  15.500   1.6362   0.05986   0.00798  -0.0446   0.0059   1.0000  75.6635 160.0000
  16.000   1.6207   0.06860   0.01430  -0.0455   0.0057   1.0000  75.7556 160.0000
  16.500   1.5977   0.07871   0.02252  -0.0474   0.0055   1.0000  75.8294 160.0000
  17.000   1.5676   0.09022   0.03292  -0.0504   0.0054   1.0000  75.8920 160.0000
  17.500   1.5319   0.10303   0.04567  -0.0546   0.0053   1.0000  75.9434 160.0000
  18.000   1.4932   0.11689   0.06090  -0.0600   0.0052   1.0000  75.9847 160.0000
  18.500   1.4600   0.13061   0.07718  -0.0663   0.0052   1.0000  76.0090 160.0000
  19.000   1.4314   0.14413   0.09469  -0.0733   0.0052   1.0000  76.0243 160.0000
  19.500   1.4039   0.15816   0.11488  -0.0815   0.0052   1.0000  76.0387 160.0000
  20.000   1.3770   0.17275   0.13813  -0.0907   0.0051   1.0000  76.0508 160.0000
